Circuit: * C:\github\SprinterVanBattery\00_PROJECT_RESEARCH\SPICE\PMOS_OPEN_CKT_DETECT.asc

Limiting rise time of source v1 to 0.01
Limiting fall time of source v1 to 0.01
Direct Newton iteration for .op point succeeded.

Date: Tue Sep 27 11:04:54 2022
Total elapsed time: 0.082 seconds.

tnom = 27
temp = 27
method = modified trap
totiter = 8543
traniter = 8523
tranpoints = 2629
accept = 2161
rejected = 468
matrix size = 22
fillins = 0
solver = Normal
Matrix Compiler1: 1.10 KB object code size  0.3/0.1/[0.1]
Matrix Compiler2: 1.68 KB object code size  0.2/0.2/[0.1]

